[General]
sim-time-limit = 6000s
debug-on-errors = false
print-undisposed = true

*.withExternalControl = false
*.externalControl.port = 8888
*.traci.core.startTime = 0s   #


cmdenv-express-mode = false
cmdenv-autoflush = true
cmdenv-interactive = false

**.cmdenv-log-level = debug          # whole model
**.traci.core.cmdenv-log-level = info   # just the TraCI core


# Enable logging for ExternalControl module
**.externalControl.**.cmdenv-log-level = debug


**.scalar-recording = false
**.vector-recording = false


*.traci.core.version = -1
*.traci.launcher.hostname = "127.0.0.1"
*.traci.launcher.port = 8813
*.traci.launcher.sumocfg = "/home/chranagno/Workspace/repos/simulator/sumo_configs/Town01.sumocfg"

# separate random number generator for vehicle penetration rate
num-rngs = 2
*.traci.mapper.rng-0 = 1

*.node[*].middleware.updateInterval = 0.01s
*.node[*].middleware.datetime = "2013-06-01 12:35:00"  ## Sync with simulators???
*.node[*].middleware.services = xmldoc("services.xml")



network = artery.veins.World

*.playgroundSizeX = 4000m
*.playgroundSizeY = 4000m
*.playgroundSizeZ = 50m

*.connectionManager.maxInterfDist = 1500m
*.connectionManager.sendDirect = true
*.connectionManager.coreDebug = false



*.node[*].nic.mac1609_4.txPower = 126mW
*.node[*].nic.phy80211p.decider = xmldoc("config.xml")
*.node[*].nic.phy80211p.analogueModels = xmldoc("config.xml")


*.node[*].applType = "artery.veins.ApplicationLayer"
*.node[*].appl.middleware.updateInterval = 0.05s
*.node[*].appl.middleware.datetime = "2013-06-01 12:35:00"
*.node[*].appl.middleware.services = xmldoc("services.xml")
